* NGSPICE file created from apb_sys_0.ext - technology: sky130A

* Black-box entry subcircuit for sky130_fd_sc_hd__fill_1 abstract view
.subckt sky130_fd_sc_hd__fill_1 VGND VNB VPB VPWR
.ends

* Black-box entry subcircuit for sky130_fd_sc_hd__decap_6 abstract view
.subckt sky130_fd_sc_hd__decap_6 VGND VNB VPB VPWR
.ends

* Black-box entry subcircuit for sky130_fd_sc_hd__decap_3 abstract view
.subckt sky130_fd_sc_hd__decap_3 VGND VNB VPB VPWR
.ends

* Black-box entry subcircuit for sky130_fd_sc_hd__a2bb2o_4 abstract view
.subckt sky130_fd_sc_hd__a2bb2o_4 A1_N A2_N B1 B2 VGND VNB VPB VPWR X
.ends

* Black-box entry subcircuit for sky130_fd_sc_hd__buf_2 abstract view
.subckt sky130_fd_sc_hd__buf_2 A VGND VNB VPB VPWR X
.ends

* Black-box entry subcircuit for sky130_fd_sc_hd__diode_2 abstract view
.subckt sky130_fd_sc_hd__diode_2 DIODE VGND VNB VPB VPWR
.ends

* Black-box entry subcircuit for sky130_fd_sc_hd__a211o_4 abstract view
.subckt sky130_fd_sc_hd__a211o_4 A1 A2 B1 C1 VGND VNB VPB VPWR X
.ends

* Black-box entry subcircuit for sky130_fd_sc_hd__decap_8 abstract view
.subckt sky130_fd_sc_hd__decap_8 VGND VNB VPB VPWR
.ends

* Black-box entry subcircuit for sky130_fd_sc_hd__tapvpwrvgnd_1 abstract view
.subckt sky130_fd_sc_hd__tapvpwrvgnd_1 VGND VPWR
.ends

* Black-box entry subcircuit for sky130_fd_sc_hd__o22a_4 abstract view
.subckt sky130_fd_sc_hd__o22a_4 A1 A2 B1 B2 VGND VNB VPB VPWR X
.ends

* Black-box entry subcircuit for sky130_fd_sc_hd__dfxtp_4 abstract view
.subckt sky130_fd_sc_hd__dfxtp_4 CLK D VGND VNB VPB VPWR Q
.ends

* Black-box entry subcircuit for sky130_fd_sc_hd__nor2_4 abstract view
.subckt sky130_fd_sc_hd__nor2_4 A B VGND VNB VPB VPWR Y
.ends

* Black-box entry subcircuit for sky130_fd_sc_hd__dfrtp_4 abstract view
.subckt sky130_fd_sc_hd__dfrtp_4 CLK D RESET_B VGND VNB VPB VPWR Q
.ends

* Black-box entry subcircuit for sky130_fd_sc_hd__and2_4 abstract view
.subckt sky130_fd_sc_hd__and2_4 A B VGND VNB VPB VPWR X
.ends

* Black-box entry subcircuit for sky130_fd_sc_hd__or2_4 abstract view
.subckt sky130_fd_sc_hd__or2_4 A B VGND VNB VPB VPWR X
.ends

* Black-box entry subcircuit for sky130_fd_sc_hd__fill_2 abstract view
.subckt sky130_fd_sc_hd__fill_2 VGND VNB VPB VPWR
.ends

* Black-box entry subcircuit for sky130_fd_sc_hd__a21oi_4 abstract view
.subckt sky130_fd_sc_hd__a21oi_4 A1 A2 B1 VGND VNB VPB VPWR Y
.ends

* Black-box entry subcircuit for sky130_fd_sc_hd__inv_2 abstract view
.subckt sky130_fd_sc_hd__inv_2 A VGND VNB VPB VPWR Y
.ends

* Black-box entry subcircuit for sky130_fd_sc_hd__decap_4 abstract view
.subckt sky130_fd_sc_hd__decap_4 VGND VNB VPB VPWR
.ends

* Black-box entry subcircuit for sky130_fd_sc_hd__decap_12 abstract view
.subckt sky130_fd_sc_hd__decap_12 VGND VNB VPB VPWR
.ends

* Black-box entry subcircuit for sky130_fd_sc_hd__or4_4 abstract view
.subckt sky130_fd_sc_hd__or4_4 A B C D VGND VNB VPB VPWR X
.ends

* Black-box entry subcircuit for sky130_fd_sc_hd__dfstp_4 abstract view
.subckt sky130_fd_sc_hd__dfstp_4 CLK D SET_B VGND VNB VPB VPWR Q
.ends

* Black-box entry subcircuit for sky130_fd_sc_hd__clkbuf_1 abstract view
.subckt sky130_fd_sc_hd__clkbuf_1 A VGND VNB VPB VPWR X
.ends

* Black-box entry subcircuit for sky130_fd_sc_hd__and3_4 abstract view
.subckt sky130_fd_sc_hd__and3_4 A B C VGND VNB VPB VPWR X
.ends

* Black-box entry subcircuit for sky130_fd_sc_hd__or3_4 abstract view
.subckt sky130_fd_sc_hd__or3_4 A B C VGND VNB VPB VPWR X
.ends

* Black-box entry subcircuit for sky130_fd_sc_hd__o21a_4 abstract view
.subckt sky130_fd_sc_hd__o21a_4 A1 A2 B1 VGND VNB VPB VPWR X
.ends

* Black-box entry subcircuit for sky130_fd_sc_hd__a32o_4 abstract view
.subckt sky130_fd_sc_hd__a32o_4 A1 A2 A3 B1 B2 VGND VNB VPB VPWR X
.ends

* Black-box entry subcircuit for sky130_fd_sc_hd__a22oi_4 abstract view
.subckt sky130_fd_sc_hd__a22oi_4 A1 A2 B1 B2 VGND VNB VPB VPWR Y
.ends

* Black-box entry subcircuit for sky130_fd_sc_hd__nand2_4 abstract view
.subckt sky130_fd_sc_hd__nand2_4 A B VGND VNB VPB VPWR Y
.ends

* Black-box entry subcircuit for sky130_fd_sc_hd__o21ai_4 abstract view
.subckt sky130_fd_sc_hd__o21ai_4 A1 A2 B1 VGND VNB VPB VPWR Y
.ends

* Black-box entry subcircuit for sky130_fd_sc_hd__and4_4 abstract view
.subckt sky130_fd_sc_hd__and4_4 A B C D VGND VNB VPB VPWR X
.ends

* Black-box entry subcircuit for sky130_fd_sc_hd__a21o_4 abstract view
.subckt sky130_fd_sc_hd__a21o_4 A1 A2 B1 VGND VNB VPB VPWR X
.ends

* Black-box entry subcircuit for sky130_fd_sc_hd__o32a_4 abstract view
.subckt sky130_fd_sc_hd__o32a_4 A1 A2 A3 B1 B2 VGND VNB VPB VPWR X
.ends

* Black-box entry subcircuit for sky130_fd_sc_hd__a2111o_4 abstract view
.subckt sky130_fd_sc_hd__a2111o_4 A1 A2 B1 C1 D1 VGND VNB VPB VPWR X
.ends

* Black-box entry subcircuit for sky130_fd_sc_hd__o41a_4 abstract view
.subckt sky130_fd_sc_hd__o41a_4 A1 A2 A3 A4 B1 VGND VNB VPB VPWR X
.ends

* Black-box entry subcircuit for sky130_fd_sc_hd__conb_1 abstract view
.subckt sky130_fd_sc_hd__conb_1 VGND VNB VPB VPWR HI LO
.ends

* Black-box entry subcircuit for sky130_fd_sc_hd__a41o_4 abstract view
.subckt sky130_fd_sc_hd__a41o_4 A1 A2 A3 A4 B1 VGND VNB VPB VPWR X
.ends

* Black-box entry subcircuit for sky130_fd_sc_hd__a21bo_4 abstract view
.subckt sky130_fd_sc_hd__a21bo_4 A1 A2 B1_N VGND VNB VPB VPWR X
.ends

* Black-box entry subcircuit for sky130_fd_sc_hd__a21boi_4 abstract view
.subckt sky130_fd_sc_hd__a21boi_4 A1 A2 B1_N VGND VNB VPB VPWR Y
.ends

* Black-box entry subcircuit for sky130_fd_sc_hd__clkbuf_16 abstract view
.subckt sky130_fd_sc_hd__clkbuf_16 A VGND VNB VPB VPWR X
.ends

.subckt apb_sys_0 HADDR[0] HADDR[10] HADDR[11] HADDR[12] HADDR[13] HADDR[14] HADDR[15]
+ HADDR[16] HADDR[17] HADDR[18] HADDR[19] HADDR[1] HADDR[20] HADDR[21] HADDR[22] HADDR[23]
+ HADDR[24] HADDR[25] HADDR[26] HADDR[27] HADDR[28] HADDR[29] HADDR[2] HADDR[30] HADDR[31]
+ HADDR[3] HADDR[4] HADDR[5] HADDR[6] HADDR[7] HADDR[8] HADDR[9] HCLK HRDATA[0] HRDATA[10]
+ HRDATA[11] HRDATA[12] HRDATA[13] HRDATA[14] HRDATA[15] HRDATA[16] HRDATA[17] HRDATA[18]
+ HRDATA[19] HRDATA[1] HRDATA[20] HRDATA[21] HRDATA[22] HRDATA[23] HRDATA[24] HRDATA[25]
+ HRDATA[26] HRDATA[27] HRDATA[28] HRDATA[29] HRDATA[2] HRDATA[30] HRDATA[31] HRDATA[3]
+ HRDATA[4] HRDATA[5] HRDATA[6] HRDATA[7] HRDATA[8] HRDATA[9] HREADY HREADYOUT HRESETn
+ HSEL HTRANS[0] HTRANS[1] HWDATA[0] HWDATA[10] HWDATA[11] HWDATA[12] HWDATA[13] HWDATA[14]
+ HWDATA[15] HWDATA[16] HWDATA[17] HWDATA[18] HWDATA[19] HWDATA[1] HWDATA[20] HWDATA[21]
+ HWDATA[22] HWDATA[23] HWDATA[24] HWDATA[25] HWDATA[26] HWDATA[27] HWDATA[28] HWDATA[29]
+ HWDATA[2] HWDATA[30] HWDATA[31] HWDATA[3] HWDATA[4] HWDATA[5] HWDATA[6] HWDATA[7]
+ HWDATA[8] HWDATA[9] HWRITE IRQ[0] IRQ[10] IRQ[11] IRQ[12] IRQ[13] IRQ[14] IRQ[15]
+ IRQ[1] IRQ[2] IRQ[3] IRQ[4] IRQ[5] IRQ[6] IRQ[7] IRQ[8] IRQ[9] MSI_S2 MSI_S3 MSO_S2
+ MSO_S3 RsRx_S0 RsRx_S1 RsTx_S0 RsTx_S1 SCLK_S2 SCLK_S3 SSn_S2 SSn_S3 pwm_S6 pwm_S7
+ scl_i_S4 scl_i_S5 scl_o_S4 scl_o_S5 scl_oen_o_S4 scl_oen_o_S5 sda_i_S4 sda_i_S5
+ sda_o_S4 sda_o_S5 sda_oen_o_S4 sda_oen_o_S5 VPWR VGND
XFILLER_45_1374 VGND VGND VPWR VPWR sky130_fd_sc_hd__fill_1
XFILLER_79_391 VGND VGND VPWR VPWR sky130_fd_sc_hd__decap_6
XFILLER_95_851 VGND VGND VPWR VPWR sky130_fd_sc_hd__decap_3
X_18869_ _18868_/Y _18866_/X _18802_/X _18866_/X VGND VGND VPWR VPWR _23536_/D sky130_fd_sc_hd__a2bb2o_4
XFILLER_82_501 VGND VGND VPWR VPWR sky130_fd_sc_hd__fill_1
X_20900_ _20900_/A VGND VGND VPWR VPWR _22587_/B sky130_fd_sc_hd__buf_2
XANTENNA__13615__A _13614_/X VGND VGND VPWR VPWR sky130_fd_sc_hd__diode_2
X_21880_ _15271_/A _21863_/Y _21870_/Y _21879_/X VGND VGND VPWR VPWR _22004_/A sky130_fd_sc_hd__a211o_4
XFILLER_94_383 VGND VGND VPWR VPWR sky130_fd_sc_hd__decap_8
X_20831_ _20823_/X _20830_/X _13009_/Y _20823_/X VGND VGND VPWR VPWR _20831_/X sky130_fd_sc_hd__a2bb2o_4
XANTENNA__21832__A _20979_/A VGND VGND VPWR VPWR sky130_fd_sc_hd__diode_2
XANTENNA__22878__B1 _20821_/X VGND VGND VPWR VPWR sky130_fd_sc_hd__diode_2
XANTENNA__24992__RESET_B HRESETn VGND VGND VPWR VPWR sky130_fd_sc_hd__diode_2
XPHY_3109 VGND VPWR sky130_fd_sc_hd__tapvpwrvgnd_1
XFILLER_74_1003 VGND VGND VPWR VPWR sky130_fd_sc_hd__fill_1
XANTENNA__22342__A2 _20927_/X VGND VGND VPWR VPWR sky130_fd_sc_hd__diode_2
X_20762_ _16817_/A _14015_/A _20736_/A _15642_/X VGND VGND VPWR VPWR _20762_/X sky130_fd_sc_hd__o22a_4
XANTENNA__24921__RESET_B HRESETn VGND VGND VPWR VPWR sky130_fd_sc_hd__diode_2
XPHY_2408 VGND VPWR sky130_fd_sc_hd__tapvpwrvgnd_1
X_23550_ _23493_/CLK _23550_/D VGND VGND VPWR VPWR _23550_/Q sky130_fd_sc_hd__dfxtp_4
XFILLER_74_1036 VGND VGND VPWR VPWR sky130_fd_sc_hd__fill_1
XANTENNA__16557__B1 _16556_/X VGND VGND VPWR VPWR sky130_fd_sc_hd__diode_2
XANTENNA__13053__C _13053_/C VGND VGND VPWR VPWR sky130_fd_sc_hd__diode_2
XANTENNA__18010__A3 _18000_/X VGND VGND VPWR VPWR sky130_fd_sc_hd__diode_2
XPHY_2419 VGND VPWR sky130_fd_sc_hd__tapvpwrvgnd_1
XANTENNA__21550__B1 _24812_/Q VGND VGND VPWR VPWR sky130_fd_sc_hd__diode_2
XFILLER_23_656 VGND VGND VPWR VPWR sky130_fd_sc_hd__fill_1
X_22501_ _22501_/A VGND VGND VPWR VPWR _22580_/B sky130_fd_sc_hd__buf_2
XFILLER_39_1189 VGND VGND VPWR VPWR sky130_fd_sc_hd__fill_1
XFILLER_11_807 VGND VGND VPWR VPWR sky130_fd_sc_hd__decap_8
XPHY_1707 VGND VPWR sky130_fd_sc_hd__tapvpwrvgnd_1
XFILLER_52_1301 VGND VGND VPWR VPWR sky130_fd_sc_hd__fill_1
XANTENNA__24239__RESET_B HRESETn VGND VGND VPWR VPWR sky130_fd_sc_hd__diode_2
X_23481_ _25061_/CLK _23481_/D VGND VGND VPWR VPWR _19024_/A sky130_fd_sc_hd__dfxtp_4
X_20693_ _12013_/A _20693_/B VGND VGND VPWR VPWR _20693_/Y sky130_fd_sc_hd__nor2_4
XPHY_1718 VGND VPWR sky130_fd_sc_hd__tapvpwrvgnd_1
XFILLER_10_306 VGND VGND VPWR VPWR sky130_fd_sc_hd__fill_1
XPHY_1729 VGND VPWR sky130_fd_sc_hd__tapvpwrvgnd_1
XANTENNA_clkbuf_5_13_0_HCLK_A clkbuf_4_6_0_HCLK/X VGND VGND VPWR VPWR sky130_fd_sc_hd__diode_2
X_22432_ _24409_/Q _20821_/X _21642_/X _22431_/X VGND VGND VPWR VPWR _22432_/X sky130_fd_sc_hd__a211o_4
XFILLER_104_1402 VGND VGND VPWR VPWR sky130_fd_sc_hd__fill_1
X_25220_ _25217_/CLK _25220_/D HRESETn VGND VGND VPWR VPWR _11496_/A sky130_fd_sc_hd__dfrtp_4
XANTENNA__16309__B1 _15828_/X VGND VGND VPWR VPWR sky130_fd_sc_hd__diode_2
X_22363_ _22438_/A _22362_/X VGND VGND VPWR VPWR _22363_/X sky130_fd_sc_hd__and2_4
XANTENNA__12594__B2 _12596_/A VGND VGND VPWR VPWR sky130_fd_sc_hd__diode_2
X_25151_ _24824_/CLK _11976_/X HRESETn VGND VGND VPWR VPWR _11975_/A sky130_fd_sc_hd__dfrtp_4
XANTENNA__22382__B _22238_/X VGND VGND VPWR VPWR sky130_fd_sc_hd__diode_2
X_21314_ _24916_/Q _21448_/B VGND VGND VPWR VPWR _21314_/X sky130_fd_sc_hd__and2_4
X_24102_ _24140_/CLK _16662_/X HRESETn VGND VGND VPWR VPWR _14744_/A sky130_fd_sc_hd__dfrtp_4
XANTENNA__15532__A1 _15430_/X VGND VGND VPWR VPWR sky130_fd_sc_hd__diode_2
XANTENNA__21279__A _23023_/A VGND VGND VPWR VPWR sky130_fd_sc_hd__diode_2
X_25082_ _25091_/CLK _25082_/D HRESETn VGND VGND VPWR VPWR _25082_/Q sky130_fd_sc_hd__dfrtp_4
X_22294_ _22294_/A _22238_/X VGND VGND VPWR VPWR _22294_/X sky130_fd_sc_hd__or2_4
X_24033_ _24596_/CLK _24033_/D HRESETn VGND VGND VPWR VPWR _16961_/A sky130_fd_sc_hd__dfrtp_4
X_21245_ _22564_/B VGND VGND VPWR VPWR _21245_/X sky130_fd_sc_hd__buf_2
XFILLER_102_1192 VGND VGND VPWR VPWR sky130_fd_sc_hd__fill_1
XFILLER_117_44 VGND VGND VPWR VPWR sky130_fd_sc_hd__decap_6
XANTENNA__23874__RESET_B HRESETn VGND VGND VPWR VPWR sky130_fd_sc_hd__diode_2
XANTENNA__25098__RESET_B HRESETn VGND VGND VPWR VPWR sky130_fd_sc_hd__diode_2
XFILLER_77_15 VGND VGND VPWR VPWR sky130_fd_sc_hd__fill_2
X_21176_ _21149_/X _21174_/X _21175_/X VGND VGND VPWR VPWR _21176_/Y sky130_fd_sc_hd__a21oi_4
XANTENNA__20911__A _21357_/A VGND VGND VPWR VPWR sky130_fd_sc_hd__diode_2
XANTENNA__23803__RESET_B HRESETn VGND VGND VPWR VPWR sky130_fd_sc_hd__diode_2
XANTENNA__25027__RESET_B HRESETn VGND VGND VPWR VPWR sky130_fd_sc_hd__diode_2
X_20127_ _20127_/A VGND VGND VPWR VPWR _20127_/Y sky130_fd_sc_hd__inv_2
XFILLER_131_296 VGND VGND VPWR VPWR sky130_fd_sc_hd__fill_1
XFILLER_24_1436 VGND VGND VPWR VPWR sky130_fd_sc_hd__decap_4
XFILLER_133_32 VGND VGND VPWR VPWR sky130_fd_sc_hd__decap_12
X_20058_ _21649_/C VGND VGND VPWR VPWR _20058_/Y sky130_fd_sc_hd__inv_2
X_24935_ _24974_/CLK _24935_/D HRESETn VGND VGND VPWR VPWR _24935_/Q sky130_fd_sc_hd__dfrtp_4
XFILLER_24_1469 VGND VGND VPWR VPWR sky130_fd_sc_hd__fill_1
X_11900_ _11900_/A VGND VGND VPWR VPWR _11900_/Y sky130_fd_sc_hd__inv_2
XFILLER_100_683 VGND VGND VPWR VPWR sky130_fd_sc_hd__decap_6
XFILLER_18_428 VGND VGND VPWR VPWR sky130_fd_sc_hd__decap_4
XFILLER_58_597 VGND VGND VPWR VPWR sky130_fd_sc_hd__decap_8
X_12880_ _12880_/A _12880_/B _12880_/C _12854_/Y VGND VGND VPWR VPWR _12882_/C sky130_fd_sc_hd__or4_4
XFILLER_2_1221 VGND VGND VPWR VPWR sky130_fd_sc_hd__fill_1
X_24866_ _24870_/CLK _24866_/D HRESETn VGND VGND VPWR VPWR _14059_/A sky130_fd_sc_hd__dfstp_4
XFILLER_22_1160 VGND VGND VPWR VPWR sky130_fd_sc_hd__fill_1
XFILLER_27_940 VGND VGND VPWR VPWR sky130_fd_sc_hd__decap_6
XFILLER_2_1254 VGND VGND VPWR VPWR sky130_fd_sc_hd__fill_1
Xclkbuf_8_128_0_HCLK clkbuf_7_64_0_HCLK/X VGND VGND VPWR VPWR _24733_/CLK sky130_fd_sc_hd__clkbuf_1
X_11831_ _11830_/Y VGND VGND VPWR VPWR _11831_/X sky130_fd_sc_hd__buf_2
X_23817_ _23824_/CLK _23817_/D HRESETn VGND VGND VPWR VPWR _18419_/A sky130_fd_sc_hd__dfrtp_4
XFILLER_73_578 VGND VGND VPWR VPWR sky130_fd_sc_hd__fill_2
XPHY_3610 VGND VPWR sky130_fd_sc_hd__tapvpwrvgnd_1
X_24797_ _24859_/CLK _24797_/D HRESETn VGND VGND VPWR VPWR _14272_/A sky130_fd_sc_hd__dfrtp_4
XANTENNA__14271__B2 _14268_/X VGND VGND VPWR VPWR sky130_fd_sc_hd__diode_2
XPHY_3621 VGND VPWR sky130_fd_sc_hd__tapvpwrvgnd_1
XFILLER_2_1298 VGND VGND VPWR VPWR sky130_fd_sc_hd__decap_3
X_14550_ _14548_/X _14549_/X _14548_/X _14549_/X VGND VGND VPWR VPWR _14550_/X sky130_fd_sc_hd__a2bb2o_4
XFILLER_54_792 VGND VGND VPWR VPWR sky130_fd_sc_hd__fill_1
XANTENNA__24662__RESET_B HRESETn VGND VGND VPWR VPWR sky130_fd_sc_hd__diode_2
XPHY_3632 VGND VPWR sky130_fd_sc_hd__tapvpwrvgnd_1
X_11762_ _11761_/A _11761_/B _11760_/Y _11761_/Y VGND VGND VPWR VPWR _11763_/D sky130_fd_sc_hd__a211o_4
XFILLER_109_1313 VGND VGND VPWR VPWR sky130_fd_sc_hd__decap_6
XANTENNA__18001__A3 _18000_/X VGND VGND VPWR VPWR sky130_fd_sc_hd__diode_2
XPHY_3643 VGND VPWR sky130_fd_sc_hd__tapvpwrvgnd_1
X_23748_ _24180_/CLK _23748_/D HRESETn VGND VGND VPWR VPWR _23748_/Q sky130_fd_sc_hd__dfrtp_4
XPHY_3654 VGND VPWR sky130_fd_sc_hd__tapvpwrvgnd_1
XFILLER_18_1218 VGND VGND VPWR VPWR sky130_fd_sc_hd__fill_2
XPHY_2920 VGND VPWR sky130_fd_sc_hd__tapvpwrvgnd_1
X_13501_ _13500_/X VGND VGND VPWR VPWR _13501_/Y sky130_fd_sc_hd__inv_2
XPHY_2931 VGND VPWR sky130_fd_sc_hd__tapvpwrvgnd_1
XPHY_2942 VGND VPWR sky130_fd_sc_hd__tapvpwrvgnd_1
X_14481_ _21534_/A _14475_/X _14480_/X VGND VGND VPWR VPWR _24752_/D sky130_fd_sc_hd__a21oi_4
X_11693_ _11693_/A _11693_/B _11689_/X _11692_/X VGND VGND VPWR VPWR _11694_/D sky130_fd_sc_hd__or4_4
XPHY_2953 VGND VPWR sky130_fd_sc_hd__tapvpwrvgnd_1
X_23679_ _24723_/CLK _20399_/Y HRESETn VGND VGND VPWR VPWR _17183_/A sky130_fd_sc_hd__dfrtp_4
XPHY_2964 VGND VPWR sky130_fd_sc_hd__tapvpwrvgnd_1
X_16220_ _16218_/Y _16138_/A _16219_/X _16138_/A VGND VGND VPWR VPWR _24289_/D sky130_fd_sc_hd__a2bb2o_4
XPHY_2975 VGND VPWR sky130_fd_sc_hd__tapvpwrvgnd_1
X_13432_ _13432_/A VGND VGND VPWR VPWR _13432_/Y sky130_fd_sc_hd__inv_2
XPHY_2986 VGND VPWR sky130_fd_sc_hd__tapvpwrvgnd_1
XPHY_2997 VGND VPWR sky130_fd_sc_hd__tapvpwrvgnd_1
X_16151_ _24315_/Q VGND VGND VPWR VPWR _16151_/Y sky130_fd_sc_hd__inv_2
X_13363_ _13363_/A VGND VGND VPWR VPWR _13363_/X sky130_fd_sc_hd__buf_2
X_15102_ _15132_/A _15129_/A VGND VGND VPWR VPWR _15125_/A sky130_fd_sc_hd__or2_4
X_12314_ _12412_/D VGND VGND VPWR VPWR _12474_/C sky130_fd_sc_hd__buf_2
X_16082_ _24340_/Q VGND VGND VPWR VPWR _16082_/Y sky130_fd_sc_hd__inv_2
XFILLER_5_332 VGND VGND VPWR VPWR sky130_fd_sc_hd__decap_4
X_13294_ _13166_/A _20007_/A VGND VGND VPWR VPWR _13295_/C sky130_fd_sc_hd__or2_4
XFILLER_138_1008 VGND VGND VPWR VPWR sky130_fd_sc_hd__decap_12
X_15033_ _15033_/A _15020_/X VGND VGND VPWR VPWR _15034_/B sky130_fd_sc_hd__or2_4
X_19910_ _19910_/A VGND VGND VPWR VPWR _21787_/B sky130_fd_sc_hd__inv_2
X_12245_ _12227_/X _12245_/B _12245_/C VGND VGND VPWR VPWR _25120_/D sky130_fd_sc_hd__and3_4
XFILLER_5_398 VGND VGND VPWR VPWR sky130_fd_sc_hd__fill_1
XFILLER_123_742 VGND VGND VPWR VPWR sky130_fd_sc_hd__decap_3
XFILLER_9_1408 VGND VGND VPWR VPWR sky130_fd_sc_hd__decap_6
X_12176_ _12176_/A _12097_/Y _12103_/Y _12157_/Y VGND VGND VPWR VPWR _12176_/X sky130_fd_sc_hd__or4_4
X_19841_ _19841_/A VGND VGND VPWR VPWR _19841_/X sky130_fd_sc_hd__buf_2
XANTENNA__15287__B1 _15286_/X VGND VGND VPWR VPWR sky130_fd_sc_hd__diode_2
XANTENNA__20821__A _22148_/A VGND VGND VPWR VPWR sky130_fd_sc_hd__diode_2
XFILLER_122_263 VGND VGND VPWR VPWR sky130_fd_sc_hd__decap_8
XFILLER_3_56 VGND VGND VPWR VPWR sky130_fd_sc_hd__decap_8
XANTENNA__15915__A _16228_/A VGND VGND VPWR VPWR sky130_fd_sc_hd__diode_2
X_16984_ _24056_/Q VGND VGND VPWR VPWR _17022_/A sky130_fd_sc_hd__inv_2
X_19772_ _19759_/Y VGND VGND VPWR VPWR _19772_/X sky130_fd_sc_hd__buf_2
XFILLER_111_959 VGND VGND VPWR VPWR sky130_fd_sc_hd__decap_4
XFILLER_49_520 VGND VGND VPWR VPWR sky130_fd_sc_hd__decap_4
XFILLER_7_1143 VGND VGND VPWR VPWR sky130_fd_sc_hd__decap_4
XFILLER_3_89 VGND VGND VPWR VPWR sky130_fd_sc_hd__decap_3
XANTENNA__22021__A1 _22011_/X VGND VGND VPWR VPWR sky130_fd_sc_hd__diode_2
X_15935_ _22838_/A VGND VGND VPWR VPWR _15935_/Y sky130_fd_sc_hd__inv_2
X_18723_ _23586_/Q VGND VGND VPWR VPWR _18723_/Y sky130_fd_sc_hd__inv_2
XFILLER_83_309 VGND VGND VPWR VPWR sky130_fd_sc_hd__decap_8
XFILLER_114_1052 VGND VGND VPWR VPWR sky130_fd_sc_hd__fill_1
Xclkbuf_7_24_0_HCLK clkbuf_6_12_0_HCLK/X VGND VGND VPWR VPWR clkbuf_7_24_0_HCLK/X
+ sky130_fd_sc_hd__clkbuf_1
XFILLER_7_1198 VGND VGND VPWR VPWR sky130_fd_sc_hd__decap_4
XANTENNA__19973__B1 _19445_/A VGND VGND VPWR VPWR sky130_fd_sc_hd__diode_2
X_18654_ _18654_/A VGND VGND VPWR VPWR _21508_/B sky130_fd_sc_hd__inv_2
X_15866_ _24411_/Q VGND VGND VPWR VPWR _15866_/Y sky130_fd_sc_hd__inv_2
Xclkbuf_7_87_0_HCLK clkbuf_7_87_0_HCLK/A VGND VGND VPWR VPWR clkbuf_7_87_0_HCLK/X
+ sky130_fd_sc_hd__clkbuf_1
X_14817_ _24690_/Q _24133_/Q _15067_/B _14816_/Y VGND VGND VPWR VPWR _14817_/X sky130_fd_sc_hd__o22a_4
X_17605_ _17603_/A _17605_/B _17605_/C VGND VGND VPWR VPWR _23949_/D sky130_fd_sc_hd__and3_4
X_18585_ _16378_/A _18427_/A _16371_/A _18543_/A VGND VGND VPWR VPWR _18585_/X sky130_fd_sc_hd__a2bb2o_4
XFILLER_64_578 VGND VGND VPWR VPWR sky130_fd_sc_hd__fill_1
X_15797_ _15797_/A VGND VGND VPWR VPWR _15797_/Y sky130_fd_sc_hd__inv_2
XFILLER_79_1492 VGND VGND VPWR VPWR sky130_fd_sc_hd__fill_2
X_17536_ _17482_/A _17535_/Y VGND VGND VPWR VPWR _17538_/B sky130_fd_sc_hd__or2_4
XANTENNA__15650__A _11944_/X VGND VGND VPWR VPWR sky130_fd_sc_hd__diode_2
X_14748_ _24684_/Q _14747_/A _15087_/A _14747_/Y VGND VGND VPWR VPWR _14748_/X sky130_fd_sc_hd__o22a_4
XANTENNA__12273__B1 _12195_/X VGND VGND VPWR VPWR sky130_fd_sc_hd__diode_2
XFILLER_127_1435 VGND VGND VPWR VPWR sky130_fd_sc_hd__decap_12
XANTENNA__17200__B2 _17198_/X VGND VGND VPWR VPWR sky130_fd_sc_hd__diode_2
XANTENNA__24332__RESET_B HRESETn VGND VGND VPWR VPWR sky130_fd_sc_hd__diode_2
X_17467_ _21805_/A _17453_/X _17466_/A _17452_/A VGND VGND VPWR VPWR _17468_/A sky130_fd_sc_hd__o22a_4
X_14679_ _14622_/X _14678_/Y _24867_/Q _14622_/X VGND VGND VPWR VPWR _24718_/D sky130_fd_sc_hd__a2bb2o_4
XANTENNA__14266__A _13934_/A VGND VGND VPWR VPWR sky130_fd_sc_hd__diode_2
X_16418_ _24212_/Q VGND VGND VPWR VPWR _16418_/Y sky130_fd_sc_hd__inv_2
X_19206_ _19206_/A VGND VGND VPWR VPWR _19206_/Y sky130_fd_sc_hd__inv_2
X_17398_ _17300_/X VGND VGND VPWR VPWR _17423_/A sky130_fd_sc_hd__buf_2
XANTENNA__22483__A _22483_/A VGND VGND VPWR VPWR sky130_fd_sc_hd__diode_2
X_19137_ _19137_/A VGND VGND VPWR VPWR _19137_/X sky130_fd_sc_hd__buf_2
XFILLER_118_514 VGND VGND VPWR VPWR sky130_fd_sc_hd__decap_3
X_16349_ _24237_/Q VGND VGND VPWR VPWR _16349_/Y sky130_fd_sc_hd__inv_2
XANTENNA__16481__A _16493_/A VGND VGND VPWR VPWR sky130_fd_sc_hd__diode_2
X_19068_ _17848_/B VGND VGND VPWR VPWR _19068_/Y sky130_fd_sc_hd__inv_2
XANTENNA__23037__B1 _17224_/Y VGND VGND VPWR VPWR sky130_fd_sc_hd__diode_2
X_18019_ _23901_/Q VGND VGND VPWR VPWR _19531_/A sky130_fd_sc_hd__buf_2
X_21030_ _20783_/X VGND VGND VPWR VPWR _21030_/X sky130_fd_sc_hd__buf_2
XANTENNA__25191__RESET_B HRESETn VGND VGND VPWR VPWR sky130_fd_sc_hd__diode_2
XANTENNA__25120__RESET_B HRESETn VGND VGND VPWR VPWR sky130_fd_sc_hd__diode_2
XFILLER_87_637 VGND VGND VPWR VPWR sky130_fd_sc_hd__decap_4
XFILLER_113_274 VGND VGND VPWR VPWR sky130_fd_sc_hd__fill_1
XFILLER_86_125 VGND VGND VPWR VPWR sky130_fd_sc_hd__decap_6
X_22981_ _12391_/Y _22259_/X _17021_/A _22433_/A VGND VGND VPWR VPWR _22982_/D sky130_fd_sc_hd__a2bb2o_4
XANTENNA__12500__A1 _12495_/A VGND VGND VPWR VPWR sky130_fd_sc_hd__diode_2
XANTENNA__19964__B1 _19963_/X VGND VGND VPWR VPWR sky130_fd_sc_hd__diode_2
X_24720_ _24723_/CLK _14672_/X HRESETn VGND VGND VPWR VPWR _14625_/A sky130_fd_sc_hd__dfrtp_4
X_21932_ _21342_/A _21932_/B VGND VGND VPWR VPWR _21932_/X sky130_fd_sc_hd__or2_4
XANTENNA__21562__A _21562_/A VGND VGND VPWR VPWR sky130_fd_sc_hd__diode_2
X_24651_ _24654_/CLK _24651_/D HRESETn VGND VGND VPWR VPWR _24651_/Q sky130_fd_sc_hd__dfrtp_4
X_21863_ _21863_/A VGND VGND VPWR VPWR _21863_/Y sky130_fd_sc_hd__inv_2
XFILLER_103_68 VGND VGND VPWR VPWR sky130_fd_sc_hd__decap_12
X_23602_ _23992_/CLK _18680_/X VGND VGND VPWR VPWR _23602_/Q sky130_fd_sc_hd__dfxtp_4
X_20814_ _21565_/A VGND VGND VPWR VPWR _20814_/X sky130_fd_sc_hd__buf_2
X_21794_ _21292_/A VGND VGND VPWR VPWR _21868_/B sky130_fd_sc_hd__buf_2
XPHY_2205 VGND VPWR sky130_fd_sc_hd__tapvpwrvgnd_1
XPHY_905 VGND VPWR sky130_fd_sc_hd__tapvpwrvgnd_1
X_24582_ _24017_/CLK _15423_/X HRESETn VGND VGND VPWR VPWR _20550_/A sky130_fd_sc_hd__dfrtp_4
XFILLER_24_954 VGND VGND VPWR VPWR sky130_fd_sc_hd__fill_1
XPHY_2216 VGND VPWR sky130_fd_sc_hd__tapvpwrvgnd_1
XPHY_916 VGND VPWR sky130_fd_sc_hd__tapvpwrvgnd_1
XPHY_927 VGND VPWR sky130_fd_sc_hd__tapvpwrvgnd_1
XPHY_2227 VGND VPWR sky130_fd_sc_hd__tapvpwrvgnd_1
XPHY_938 VGND VPWR sky130_fd_sc_hd__tapvpwrvgnd_1
XANTENNA__24073__RESET_B HRESETn VGND VGND VPWR VPWR sky130_fd_sc_hd__diode_2
XPHY_2238 VGND VPWR sky130_fd_sc_hd__tapvpwrvgnd_1
XPHY_949 VGND VPWR sky130_fd_sc_hd__tapvpwrvgnd_1
X_23533_ _23531_/CLK _18881_/X VGND VGND VPWR VPWR _23533_/Q sky130_fd_sc_hd__dfxtp_4
X_20745_ _20744_/X VGND VGND VPWR VPWR _20745_/X sky130_fd_sc_hd__buf_2
XPHY_2249 VGND VPWR sky130_fd_sc_hd__tapvpwrvgnd_1
XPHY_1504 VGND VPWR sky130_fd_sc_hd__tapvpwrvgnd_1
XPHY_1515 VGND VPWR sky130_fd_sc_hd__tapvpwrvgnd_1
XFILLER_23_486 VGND VGND VPWR VPWR sky130_fd_sc_hd__decap_8
XPHY_1526 VGND VPWR sky130_fd_sc_hd__tapvpwrvgnd_1
XFILLER_17_1240 VGND VGND VPWR VPWR sky130_fd_sc_hd__decap_6
XPHY_1537 VGND VPWR sky130_fd_sc_hd__tapvpwrvgnd_1
XANTENNA__24002__RESET_B HRESETn VGND VGND VPWR VPWR sky130_fd_sc_hd__diode_2
X_20676_ _23756_/Q _23755_/Q _13541_/X VGND VGND VPWR VPWR _20676_/X sky130_fd_sc_hd__or3_4
XFILLER_50_294 VGND VGND VPWR VPWR sky130_fd_sc_hd__decap_8
XPHY_1548 VGND VPWR sky130_fd_sc_hd__tapvpwrvgnd_1
X_23464_ _23419_/CLK _23464_/D VGND VGND VPWR VPWR _23464_/Q sky130_fd_sc_hd__dfxtp_4
XPHY_1559 VGND VPWR sky130_fd_sc_hd__tapvpwrvgnd_1
XFILLER_10_147 VGND VGND VPWR VPWR sky130_fd_sc_hd__decap_8
X_25203_ _23969_/CLK _25203_/D HRESETn VGND VGND VPWR VPWR _11587_/A sky130_fd_sc_hd__dfrtp_4
X_22415_ _22414_/X VGND VGND VPWR VPWR _22416_/D sky130_fd_sc_hd__inv_2
XFILLER_6_107 VGND VGND VPWR VPWR sky130_fd_sc_hd__decap_3
XFILLER_137_834 VGND VGND VPWR VPWR sky130_fd_sc_hd__fill_2
XFILLER_17_1295 VGND VGND VPWR VPWR sky130_fd_sc_hd__decap_12
XANTENNA__16391__A _21109_/B VGND VGND VPWR VPWR sky130_fd_sc_hd__diode_2
X_23395_ _23411_/CLK _19269_/X VGND VGND VPWR VPWR _21701_/D sky130_fd_sc_hd__dfxtp_4
X_25134_ _25141_/CLK _25134_/D HRESETn VGND VGND VPWR VPWR _12069_/A sky130_fd_sc_hd__dfrtp_4
X_22346_ _21529_/X _22342_/X _22500_/A _22345_/X VGND VGND VPWR VPWR _22346_/X sky130_fd_sc_hd__o22a_4
XANTENNA__25208__RESET_B HRESETn VGND VGND VPWR VPWR sky130_fd_sc_hd__diode_2
XFILLER_30_1484 VGND VGND VPWR VPWR sky130_fd_sc_hd__decap_8
X_22277_ _22512_/A VGND VGND VPWR VPWR _22495_/A sky130_fd_sc_hd__buf_2
X_25065_ _25046_/CLK _12676_/Y HRESETn VGND VGND VPWR VPWR _25065_/Q sky130_fd_sc_hd__dfrtp_4
XANTENNA__23043__A3 HWDATA[31] VGND VGND VPWR VPWR sky130_fd_sc_hd__diode_2
X_12030_ _23796_/Q _12015_/B _12029_/Y VGND VGND VPWR VPWR _20696_/A sky130_fd_sc_hd__o21a_4
XANTENNA__17258__A1 _25197_/Q VGND VGND VPWR VPWR sky130_fd_sc_hd__diode_2
X_21228_ _21234_/A VGND VGND VPWR VPWR _21229_/A sky130_fd_sc_hd__buf_2
X_24016_ _24017_/CLK _24016_/D HRESETn VGND VGND VPWR VPWR _17208_/A sky130_fd_sc_hd__dfrtp_4
XFILLER_105_764 VGND VGND VPWR VPWR sky130_fd_sc_hd__fill_1
XFILLER_2_357 VGND VGND VPWR VPWR sky130_fd_sc_hd__fill_1
XFILLER_132_550 VGND VGND VPWR VPWR sky130_fd_sc_hd__fill_2
XANTENNA__15735__A _15431_/X VGND VGND VPWR VPWR sky130_fd_sc_hd__diode_2
X_21159_ _21159_/A _19661_/Y VGND VGND VPWR VPWR _21160_/C sky130_fd_sc_hd__or2_4
XFILLER_8_1441 VGND VGND VPWR VPWR sky130_fd_sc_hd__decap_6
X_13981_ _13981_/A VGND VGND VPWR VPWR _13981_/Y sky130_fd_sc_hd__inv_2
XFILLER_63_1293 VGND VGND VPWR VPWR sky130_fd_sc_hd__fill_1
XFILLER_120_789 VGND VGND VPWR VPWR sky130_fd_sc_hd__decap_4
XFILLER_59_884 VGND VGND VPWR VPWR sky130_fd_sc_hd__fill_1
X_15720_ _15720_/A VGND VGND VPWR VPWR _15720_/X sky130_fd_sc_hd__buf_2
X_12932_ _12932_/A VGND VGND VPWR VPWR _12932_/Y sky130_fd_sc_hd__inv_2
XFILLER_46_523 VGND VGND VPWR VPWR sky130_fd_sc_hd__fill_1
XANTENNA__17950__A _17918_/A VGND VGND VPWR VPWR sky130_fd_sc_hd__diode_2
X_24918_ _24923_/CLK _13701_/X HRESETn VGND VGND VPWR VPWR _24918_/Q sky130_fd_sc_hd__dfrtp_4
XFILLER_24_1288 VGND VGND VPWR VPWR sky130_fd_sc_hd__fill_1
XANTENNA__24843__RESET_B HRESETn VGND VGND VPWR VPWR sky130_fd_sc_hd__diode_2
XFILLER_59_1307 VGND VGND VPWR VPWR sky130_fd_sc_hd__decap_4
XFILLER_74_865 VGND VGND VPWR VPWR sky130_fd_sc_hd__decap_4
X_15651_ _15421_/X _15647_/X _15635_/X _24499_/Q _15650_/X VGND VGND VPWR VPWR _24499_/D
+ sky130_fd_sc_hd__a32o_4
XFILLER_98_1378 VGND VGND VPWR VPWR sky130_fd_sc_hd__decap_3
X_12863_ _25011_/Q VGND VGND VPWR VPWR _12863_/Y sky130_fd_sc_hd__inv_2
XANTENNA__19292__A2_N _19289_/X VGND VGND VPWR VPWR sky130_fd_sc_hd__diode_2
X_24849_ _24840_/CLK _14124_/Y HRESETn VGND VGND VPWR VPWR _11917_/D sky130_fd_sc_hd__dfrtp_4
XANTENNA__16566__A _16566_/A VGND VGND VPWR VPWR sky130_fd_sc_hd__diode_2
X_14602_ _19946_/A _19946_/B VGND VGND VPWR VPWR _19167_/B sky130_fd_sc_hd__or2_4
XANTENNA__15470__A _15464_/X VGND VGND VPWR VPWR sky130_fd_sc_hd__diode_2
X_11814_ _11817_/B VGND VGND VPWR VPWR _11814_/Y sky130_fd_sc_hd__inv_2
X_18370_ _23842_/Q VGND VGND VPWR VPWR _18412_/A sky130_fd_sc_hd__inv_2
X_15582_ _15582_/A VGND VGND VPWR VPWR _15582_/X sky130_fd_sc_hd__buf_2
XANTENNA__22718__D _22718_/D VGND VGND VPWR VPWR sky130_fd_sc_hd__diode_2
X_12794_ _12793_/Y _20834_/A _12793_/Y _20834_/A VGND VGND VPWR VPWR _12795_/D sky130_fd_sc_hd__a2bb2o_4
XPHY_3440 VGND VPWR sky130_fd_sc_hd__tapvpwrvgnd_1
XPHY_3451 VGND VPWR sky130_fd_sc_hd__tapvpwrvgnd_1
X_17321_ _23982_/Q VGND VGND VPWR VPWR _17321_/Y sky130_fd_sc_hd__inv_2
X_14533_ _20994_/A VGND VGND VPWR VPWR _21009_/A sky130_fd_sc_hd__buf_2
XFILLER_30_902 VGND VGND VPWR VPWR sky130_fd_sc_hd__decap_6
XPHY_3462 VGND VPWR sky130_fd_sc_hd__tapvpwrvgnd_1
X_11745_ _11745_/A _11745_/B VGND VGND VPWR VPWR _11763_/C sky130_fd_sc_hd__or2_4
XFILLER_30_913 VGND VGND VPWR VPWR sky130_fd_sc_hd__fill_2
XFILLER_18_1026 VGND VGND VPWR VPWR sky130_fd_sc_hd__decap_8
XPHY_3473 VGND VPWR sky130_fd_sc_hd__tapvpwrvgnd_1
XPHY_3484 VGND VPWR sky130_fd_sc_hd__tapvpwrvgnd_1
XPHY_3495 VGND VPWR sky130_fd_sc_hd__tapvpwrvgnd_1
XPHY_2750 VGND VPWR sky130_fd_sc_hd__tapvpwrvgnd_1
XANTENNA__11503__A _11503_/A VGND VGND VPWR VPWR sky130_fd_sc_hd__diode_2
XPHY_2761 VGND VPWR sky130_fd_sc_hd__tapvpwrvgnd_1
X_17252_ _11565_/A _17251_/A _11565_/Y _17251_/Y VGND VGND VPWR VPWR _17252_/X sky130_fd_sc_hd__o22a_4
X_14464_ _14541_/D VGND VGND VPWR VPWR _19779_/B sky130_fd_sc_hd__inv_2
XPHY_2772 VGND VPWR sky130_fd_sc_hd__tapvpwrvgnd_1
X_11676_ _11676_/A VGND VGND VPWR VPWR _11676_/Y sky130_fd_sc_hd__inv_2
XFILLER_30_968 VGND VGND VPWR VPWR sky130_fd_sc_hd__fill_2
XPHY_2783 VGND VPWR sky130_fd_sc_hd__tapvpwrvgnd_1
XPHY_2794 VGND VPWR sky130_fd_sc_hd__tapvpwrvgnd_1
X_16203_ _16196_/A VGND VGND VPWR VPWR _16203_/X sky130_fd_sc_hd__buf_2
XFILLER_31_1204 VGND VGND VPWR VPWR sky130_fd_sc_hd__decap_12
X_13415_ _24931_/Q VGND VGND VPWR VPWR _13415_/Y sky130_fd_sc_hd__inv_2
XANTENNA__12558__B2 _24528_/Q VGND VGND VPWR VPWR sky130_fd_sc_hd__diode_2
X_17183_ _17183_/A _20394_/A VGND VGND VPWR VPWR _17186_/B sky130_fd_sc_hd__or2_4
X_14395_ _14387_/C _14392_/X VGND VGND VPWR VPWR _14395_/X sky130_fd_sc_hd__or2_4
XANTENNA__23796__RESET_B HRESETn VGND VGND VPWR VPWR sky130_fd_sc_hd__diode_2
X_16134_ _15655_/A VGND VGND VPWR VPWR _16134_/X sky130_fd_sc_hd__buf_2
X_13346_ _24991_/Q VGND VGND VPWR VPWR _13346_/Y sky130_fd_sc_hd__inv_2
XANTENNA__23725__RESET_B HRESETn VGND VGND VPWR VPWR sky130_fd_sc_hd__diode_2
XFILLER_6_663 VGND VGND VPWR VPWR sky130_fd_sc_hd__fill_1
XFILLER_5_151 VGND VGND VPWR VPWR sky130_fd_sc_hd__fill_2
X_16065_ _16063_/Y _16059_/X _15761_/X _16064_/X VGND VGND VPWR VPWR _24348_/D sky130_fd_sc_hd__a2bb2o_4
X_13277_ _13309_/A _13277_/B VGND VGND VPWR VPWR _13278_/C sky130_fd_sc_hd__or2_4
XANTENNA__12334__A _25077_/Q VGND VGND VPWR VPWR sky130_fd_sc_hd__diode_2
XFILLER_108_591 VGND VGND VPWR VPWR sky130_fd_sc_hd__fill_1
X_15016_ _15016_/A _15013_/B _15015_/X VGND VGND VPWR VPWR _15017_/A sky130_fd_sc_hd__or3_4
XFILLER_64_1002 VGND VGND VPWR VPWR sky130_fd_sc_hd__decap_3
X_12228_ _12167_/Y _12183_/B VGND VGND VPWR VPWR _12228_/X sky130_fd_sc_hd__or2_4
XANTENNA__22793__A2 _20757_/A VGND VGND VPWR VPWR sky130_fd_sc_hd__diode_2
X_19824_ _23195_/Q VGND VGND VPWR VPWR _19824_/Y sky130_fd_sc_hd__inv_2
XFILLER_25_1008 VGND VGND VPWR VPWR sky130_fd_sc_hd__decap_3